<?xml version="1.0" encoding="UTF-8"?>

<!-- generated on 2025-05-20 17:23:43.074763 by randomTrips.py v1_22_0+0002-63e50f52594
<configuration>
    <net-file value="/home/eduardo/Documents/Projects/tcc/sumo/grid.net.xml"/>
    <route-file value="/home/eduardo/Documents/Projects/tcc/sumo/grid.rou.xml"/>
    <min-distance value="600.0"/>
    <end value="50000.0"/>
    <period value="2.5"/>
</configuration>
-->

<!-- generated on 2025-05-20 17:23:42 by Eclipse SUMO duarouter Version 1.22.0
<duarouterConfiguration xmlns:xsi="http://www.w3.org/2001/XMLSchema-instance" xsi:noNamespaceSchemaLocation="http://sumo.dlr.de/xsd/duarouterConfiguration.xsd">

    <input>
        <net-file value="/home/eduardo/Documents/Projects/tcc/sumo/grid.net.xml"/>
        <route-files value="trips.trips.xml"/>
    </input>

    <output>
        <output-file value="/home/eduardo/Documents/Projects/tcc/sumo/grid.rou.xml"/>
        <alternatives-output value="NUL"/>
    </output>

    <time>
        <begin value="0"/>
        <end value="50000.0"/>
    </time>

    <report>
        <no-warnings value="true"/>
        <ignore-errors value="true"/>
        <no-step-log value="true"/>
    </report>

</duarouterConfiguration>
-->

<routes xmlns:xsi="http://www.w3.org/2001/XMLSchema-instance" xsi:noNamespaceSchemaLocation="http://sumo.dlr.de/xsd/routes_file.xsd">
    <vehicle id="0" depart="0.00">
        <route edges="E49 E12 E50 E51 E52 E53 E54 E2 E45"/>
    </vehicle>
    <vehicle id="1" depart="2.50">
        <route edges="E57 E58 E36 E37 E38 E39 E19 E14 E13"/>
    </vehicle>
    <vehicle id="2" depart="5.00">
        <route edges="E31 E32 E33 E34 E7 E6 E5 E0 E1"/>
    </vehicle>
    <vehicle id="3" depart="7.50">
        <route edges="E20 E21 E22 E23 E56 E57 E58 E36"/>
    </vehicle>
    <vehicle id="4" depart="10.00">
        <route edges="E1 E2 E3 E4 E15 E16 E17 E18 E19"/>
    </vehicle>
    <vehicle id="5" depart="12.50">
        <route edges="E20 E21 E46 E28 E29 E17 E18 E19 E14 E40"/>
    </vehicle>
    <vehicle id="6" depart="15.00">
        <route edges="E52 E53 E23 E24 E5 E0"/>
    </vehicle>
    <vehicle id="7" depart="17.50">
        <route edges="E27 E28 E29 E17"/>
    </vehicle>
    <vehicle id="8" depart="20.00">
        <route edges="E7 E25 E26 E27"/>
    </vehicle>
    <vehicle id="9" depart="22.50">
        <route edges="E38 E39 E19 E14 E13 E12 E11 E10 E9 E8"/>
    </vehicle>
    <vehicle id="10" depart="25.00">
        <route edges="E55 E56 E26 E53 E54 E2 E3 E4"/>
    </vehicle>
    <vehicle id="11" depart="27.50">
        <route edges="E47 E48 E49 E12 E11 E10"/>
    </vehicle>
    <vehicle id="12" depart="30.00">
        <route edges="E20 E21 E22 E23 E24"/>
    </vehicle>
    <vehicle id="13" depart="32.50">
        <route edges="E12 E50 E51 E52 E53 E54 E2 E3 E4 E15 E20"/>
    </vehicle>
    <vehicle id="14" depart="35.00">
        <route edges="E14 E13 E12 E50 E51 E52 E53 E23"/>
    </vehicle>
    <vehicle id="15" depart="37.50">
        <route edges="E9 E8 E7 E25 E26 E27 E28 E43"/>
    </vehicle>
    <vehicle id="16" depart="40.00">
        <route edges="E54 E2 E45 E46 E47 E48 E49 E12 E50"/>
    </vehicle>
    <vehicle id="17" depart="42.50">
        <route edges="E20 E21 E22 E23 E24 E5 E0 E1"/>
    </vehicle>
    <vehicle id="18" depart="45.00">
        <route edges="E39 E19 E14 E40 E41 E42 E43 E21 E22"/>
    </vehicle>
    <vehicle id="19" depart="47.50">
        <route edges="E40 E41 E42 E43 E21 E22 E23 E56 E57"/>
    </vehicle>
    <vehicle id="20" depart="50.00">
        <route edges="E13 E12 E11 E10"/>
    </vehicle>
    <vehicle id="21" depart="52.50">
        <route edges="E14 E40 E41 E42"/>
    </vehicle>
    <vehicle id="22" depart="55.00">
        <route edges="E11 E10 E9 E8 E7 E25 E26 E27 E28 E29"/>
    </vehicle>
    <vehicle id="23" depart="57.50">
        <route edges="E9 E35 E36 E37"/>
    </vehicle>
    <vehicle id="24" depart="60.00">
        <route edges="E8 E7 E6 E5 E0 E55"/>
    </vehicle>
    <vehicle id="25" depart="62.50">
        <route edges="E0 E1 E2 E45 E46 E47 E48"/>
    </vehicle>
    <vehicle id="26" depart="65.00">
        <route edges="E45 E46 E47 E48 E38"/>
    </vehicle>
    <vehicle id="27" depart="67.50">
        <route edges="E14 E40 E41 E31 E32"/>
    </vehicle>
    <vehicle id="28" depart="70.00">
        <route edges="E36 E37 E38 E41 E42 E29 E17 E18"/>
    </vehicle>
    <vehicle id="29" depart="72.50">
        <route edges="E24 E5 E0 E1 E2 E45 E46 E28 E43"/>
    </vehicle>
    <vehicle id="30" depart="75.00">
        <route edges="E5 E0 E1 E2 E45 E46 E47 E48 E38"/>
    </vehicle>
    <vehicle id="31" depart="77.50">
        <route edges="E1 E2 E45 E22 E23 E56 E57 E58 E59"/>
    </vehicle>
    <vehicle id="32" depart="80.00">
        <route edges="E25 E26 E27 E47 E48 E49 E12 E11"/>
    </vehicle>
    <vehicle id="33" depart="82.50">
        <route edges="E13 E12 E11 E10 E9 E35"/>
    </vehicle>
    <vehicle id="34" depart="85.00">
        <route edges="E12 E11 E10 E9 E8 E7 E6 E5"/>
    </vehicle>
    <vehicle id="35" depart="87.50">
        <route edges="E5 E0 E1 E2 E3 E4 E15"/>
    </vehicle>
    <vehicle id="36" depart="90.00">
        <route edges="E34 E7 E25 E57 E58 E36 E37 E38"/>
    </vehicle>
    <vehicle id="37" depart="92.50">
        <route edges="E31 E32 E52 E53 E54 E2"/>
    </vehicle>
    <vehicle id="38" depart="95.00">
        <route edges="E9 E8 E7 E25 E26 E27 E28 E43"/>
    </vehicle>
    <vehicle id="39" depart="97.50">
        <route edges="E12 E50 E37 E38 E41 E42"/>
    </vehicle>
    <vehicle id="40" depart="100.00">
        <route edges="E20 E21 E22 E23 E56 E57 E58"/>
    </vehicle>
    <vehicle id="41" depart="102.50">
        <route edges="E55 E56 E57 E58 E36 E37 E49 E12"/>
    </vehicle>
    <vehicle id="42" depart="105.00">
        <route edges="E2 E3 E4 E15"/>
    </vehicle>
    <vehicle id="43" depart="107.50">
        <route edges="E6 E5 E0 E1 E2 E3 E4"/>
    </vehicle>
    <vehicle id="44" depart="110.00">
        <route edges="E52 E27 E28 E29 E17 E18 E19"/>
    </vehicle>
    <vehicle id="45" depart="112.50">
        <route edges="E31 E32 E33 E34"/>
    </vehicle>
    <vehicle id="46" depart="115.00">
        <route edges="E9 E35 E36 E37 E38 E39 E19 E14 E13"/>
    </vehicle>
    <vehicle id="47" depart="117.50">
        <route edges="E19 E14 E40 E41 E31 E32"/>
    </vehicle>
    <vehicle id="48" depart="120.00">
        <route edges="E31 E32 E52 E53 E23"/>
    </vehicle>
    <vehicle id="49" depart="122.50">
        <route edges="E21 E22 E23 E56 E57 E58 E59"/>
    </vehicle>
    <vehicle id="50" depart="125.00">
        <route edges="E39 E19 E14 E13 E12 E11"/>
    </vehicle>
    <vehicle id="51" depart="127.50">
        <route edges="E9 E8 E7 E25 E26 E53 E54"/>
    </vehicle>
    <vehicle id="52" depart="130.00">
        <route edges="E54 E2 E3 E4 E15 E16 E17"/>
    </vehicle>
    <vehicle id="53" depart="132.50">
        <route edges="E35 E36 E51 E52 E53 E54 E2"/>
    </vehicle>
    <vehicle id="54" depart="135.00">
        <route edges="E30 E31 E48 E49 E12 E11"/>
    </vehicle>
    <vehicle id="55" depart="137.50">
        <route edges="E29 E17 E18 E19 E14 E13 E12 E11 E10 E9"/>
    </vehicle>
    <vehicle id="56" depart="140.00">
        <route edges="E17 E30 E31 E32 E52 E53 E23 E24"/>
    </vehicle>
    <vehicle id="57" depart="142.50">
        <route edges="E8 E7 E6 E5 E0 E1 E2 E3 E4"/>
    </vehicle>
    <vehicle id="58" depart="145.00">
        <route edges="E36 E51 E33 E34 E7 E6 E5 E0 E55"/>
    </vehicle>
    <vehicle id="59" depart="147.50">
        <route edges="E17 E30 E31 E32 E33 E34 E7"/>
    </vehicle>
    <vehicle id="60" depart="150.00">
        <route edges="E40 E41 E42 E43 E21 E22 E54 E2 E45"/>
    </vehicle>
    <vehicle id="61" depart="152.50">
        <route edges="E40 E41 E42"/>
    </vehicle>
    <vehicle id="62" depart="155.00">
        <route edges="E37 E38 E41 E31 E32 E33 E34 E7 E6"/>
    </vehicle>
    <vehicle id="63" depart="157.50">
        <route edges="E2 E45 E46 E47"/>
    </vehicle>
    <vehicle id="64" depart="160.00">
        <route edges="E45 E22 E23 E24"/>
    </vehicle>
    <vehicle id="65" depart="162.50">
        <route edges="E12 E50 E51 E52 E53 E54 E2"/>
    </vehicle>
    <vehicle id="66" depart="165.00">
        <route edges="E22 E23 E56 E57 E58 E59"/>
    </vehicle>
    <vehicle id="67" depart="167.50">
        <route edges="E41 E31 E48 E49 E12 E11 E10 E9"/>
    </vehicle>
    <vehicle id="68" depart="170.00">
        <route edges="E44 E4 E15 E20 E21 E22 E23 E24 E5 E0"/>
    </vehicle>
    <vehicle id="69" depart="172.50">
        <route edges="E44 E4 E15 E16 E17 E30 E31 E32 E33 E34 E7 E6"/>
    </vehicle>
    <vehicle id="70" depart="175.00">
        <route edges="E16 E17 E18 E19 E14"/>
    </vehicle>
    <vehicle id="71" depart="177.50">
        <route edges="E48 E38 E41 E42 E43 E21 E22 E54 E2"/>
    </vehicle>
    <vehicle id="72" depart="180.00">
        <route edges="E54 E2 E3 E4 E15 E16 E17 E18 E19 E14 E13"/>
    </vehicle>
    <vehicle id="73" depart="182.50">
        <route edges="E31 E32 E52 E53 E23"/>
    </vehicle>
    <vehicle id="74" depart="185.00">
        <route edges="E0 E1 E2 E45 E46 E47 E48 E49 E12 E50"/>
    </vehicle>
    <vehicle id="75" depart="187.50">
        <route edges="E31 E32 E33 E34 E7 E6 E5 E0"/>
    </vehicle>
    <vehicle id="76" depart="190.00">
        <route edges="E12 E50 E51 E52 E53 E23 E56"/>
    </vehicle>
    <vehicle id="77" depart="192.50">
        <route edges="E58 E36 E37 E38"/>
    </vehicle>
    <vehicle id="78" depart="195.00">
        <route edges="E54 E2 E3 E4"/>
    </vehicle>
    <vehicle id="79" depart="197.50">
        <route edges="E51 E33 E34 E7 E6 E5 E0 E55"/>
    </vehicle>
    <vehicle id="80" depart="200.00">
        <route edges="E21 E46 E28 E29 E17 E18 E19 E14"/>
    </vehicle>
    <vehicle id="81" depart="202.50">
        <route edges="E17 E30 E31 E32 E33 E58 E59"/>
    </vehicle>
    <vehicle id="82" depart="205.00">
        <route edges="E55 E56 E57 E58 E59 E10 E9 E8"/>
    </vehicle>
    <vehicle id="83" depart="207.50">
        <route edges="E1 E2 E45 E46 E47 E48 E49"/>
    </vehicle>
    <vehicle id="84" depart="210.00">
        <route edges="E26 E53 E23 E56 E57 E58 E59"/>
    </vehicle>
    <vehicle id="85" depart="212.50">
        <route edges="E20 E21 E46 E47 E32 E52"/>
    </vehicle>
    <vehicle id="86" depart="215.00">
        <route edges="E51 E52 E53 E54 E2 E3 E4 E15 E20"/>
    </vehicle>
    <vehicle id="87" depart="217.50">
        <route edges="E1 E2 E3 E4 E15 E16 E17 E18 E19"/>
    </vehicle>
    <vehicle id="88" depart="220.00">
        <route edges="E8 E7 E25 E26 E53 E23"/>
    </vehicle>
    <vehicle id="89" depart="222.50">
        <route edges="E8 E7 E25 E57 E58 E36 E37 E38"/>
    </vehicle>
    <vehicle id="90" depart="225.00">
        <route edges="E6 E5 E0 E1 E2 E3 E4 E15 E16 E17 E18 E19 E14"/>
    </vehicle>
    <vehicle id="91" depart="227.50">
        <route edges="E8 E7 E25 E26 E27 E28 E29 E17 E18"/>
    </vehicle>
    <vehicle id="92" depart="230.00">
        <route edges="E14 E40 E41 E31 E32"/>
    </vehicle>
    <vehicle id="93" depart="232.50">
        <route edges="E0 E55 E56 E57 E58 E59"/>
    </vehicle>
    <vehicle id="94" depart="235.00">
        <route edges="E49 E12 E50 E51 E52 E53 E54 E2 E45"/>
    </vehicle>
    <vehicle id="95" depart="237.50">
        <route edges="E28 E29 E17 E18 E19 E14 E13 E12"/>
    </vehicle>
    <vehicle id="96" depart="240.00">
        <route edges="E25 E26 E27 E28 E29 E17 E30"/>
    </vehicle>
    <vehicle id="97" depart="242.50">
        <route edges="E30 E31 E32 E52 E53 E23 E24"/>
    </vehicle>
    <vehicle id="98" depart="245.00">
        <route edges="E15 E16 E17 E30 E31"/>
    </vehicle>
    <vehicle id="99" depart="247.50">
        <route edges="E6 E5 E0 E1 E2 E45"/>
    </vehicle>
    <vehicle id="100" depart="250.00">
        <route edges="E58 E36 E37 E38 E41"/>
    </vehicle>
    <vehicle id="101" depart="252.50">
        <route edges="E25 E26 E27 E47 E48 E38"/>
    </vehicle>
    <vehicle id="102" depart="255.00">
        <route edges="E31 E48 E38 E41 E42 E43 E44 E4"/>
    </vehicle>
    <vehicle id="103" depart="257.50">
        <route edges="E44 E4 E15 E16 E17 E30 E31 E32 E33"/>
    </vehicle>
    <vehicle id="104" depart="260.00">
        <route edges="E32 E52 E53 E54 E2"/>
    </vehicle>
    <vehicle id="105" depart="262.50">
        <route edges="E51 E52 E27 E28 E29 E17 E18"/>
    </vehicle>
    <vehicle id="106" depart="265.00">
        <route edges="E19 E14 E13 E12 E11 E10 E9 E8 E7 E6 E5 E0 E1"/>
    </vehicle>
    <vehicle id="107" depart="267.50">
        <route edges="E21 E22 E23 E56 E57 E34"/>
    </vehicle>
    <vehicle id="108" depart="270.00">
        <route edges="E54 E2 E45 E46 E47 E48 E49 E12"/>
    </vehicle>
    <vehicle id="109" depart="272.50">
        <route edges="E35 E36 E37 E38 E41 E42 E43 E21"/>
    </vehicle>
    <vehicle id="110" depart="275.00">
        <route edges="E44 E4 E15 E20 E21 E22 E23 E24 E5 E0"/>
    </vehicle>
    <vehicle id="111" depart="277.50">
        <route edges="E5 E0 E1 E2 E45 E46 E47 E48 E49 E12 E50"/>
    </vehicle>
    <vehicle id="112" depart="280.00">
        <route edges="E18 E19 E14 E13 E12 E11 E10 E9 E8 E7"/>
    </vehicle>
    <vehicle id="113" depart="282.50">
        <route edges="E45 E46 E47 E48 E49 E12 E11 E10 E9"/>
    </vehicle>
    <vehicle id="114" depart="285.00">
        <route edges="E40 E41 E31 E32 E33 E34 E7"/>
    </vehicle>
    <vehicle id="115" depart="287.50">
        <route edges="E57 E58 E36 E37 E38 E41"/>
    </vehicle>
    <vehicle id="116" depart="290.00">
        <route edges="E57 E58 E36 E37 E49"/>
    </vehicle>
    <vehicle id="117" depart="292.50">
        <route edges="E5 E0 E55 E56 E57 E58 E36 E37"/>
    </vehicle>
    <vehicle id="118" depart="295.00">
        <route edges="E42 E43 E21 E22 E23"/>
    </vehicle>
    <vehicle id="119" depart="297.50">
        <route edges="E12 E50 E51 E52 E53 E23 E24"/>
    </vehicle>
    <vehicle id="120" depart="300.00">
        <route edges="E47 E48 E49 E12 E11"/>
    </vehicle>
    <vehicle id="121" depart="302.50">
        <route edges="E30 E31 E32 E52 E53 E54 E2"/>
    </vehicle>
    <vehicle id="122" depart="305.00">
        <route edges="E31 E32 E33 E58"/>
    </vehicle>
    <vehicle id="123" depart="307.50">
        <route edges="E40 E41 E42 E43 E21 E46"/>
    </vehicle>
    <vehicle id="124" depart="310.00">
        <route edges="E29 E17 E30 E31 E32 E33 E34 E7 E6 E5 E0"/>
    </vehicle>
    <vehicle id="125" depart="312.50">
        <route edges="E28 E43 E21 E22 E23 E24 E5"/>
    </vehicle>
    <vehicle id="126" depart="315.00">
        <route edges="E32 E33 E34 E7 E6 E5 E0 E1"/>
    </vehicle>
    <vehicle id="127" depart="317.50">
        <route edges="E34 E7 E6 E5 E0 E1 E2 E3 E4 E15"/>
    </vehicle>
    <vehicle id="128" depart="320.00">
        <route edges="E42 E43 E21 E22 E23 E24 E5 E0 E1"/>
    </vehicle>
    <vehicle id="129" depart="322.50">
        <route edges="E3 E4 E15 E16 E17 E30 E31 E48 E38 E39"/>
    </vehicle>
    <vehicle id="130" depart="325.00">
        <route edges="E1 E2 E45 E46 E28 E43"/>
    </vehicle>
    <vehicle id="131" depart="327.50">
        <route edges="E16 E17 E30 E31 E32 E33"/>
    </vehicle>
    <vehicle id="132" depart="330.00">
        <route edges="E11 E10 E9 E8 E7 E25 E26 E27 E28 E29"/>
    </vehicle>
    <vehicle id="133" depart="332.50">
        <route edges="E5 E0 E1 E2 E45 E46 E28 E29"/>
    </vehicle>
    <vehicle id="134" depart="335.00">
        <route edges="E22 E23 E56 E26 E27 E47 E48 E49 E12"/>
    </vehicle>
    <vehicle id="135" depart="337.50">
        <route edges="E1 E2 E45 E46 E47 E48 E38"/>
    </vehicle>
    <vehicle id="136" depart="340.00">
        <route edges="E9 E8 E7 E25 E26 E27"/>
    </vehicle>
    <vehicle id="137" depart="342.50">
        <route edges="E44 E4 E15 E16 E17 E18 E19 E14 E13 E12 E50"/>
    </vehicle>
    <vehicle id="138" depart="345.00">
        <route edges="E44 E4 E15 E20 E21 E22 E23 E24 E5"/>
    </vehicle>
    <vehicle id="139" depart="347.50">
        <route edges="E6 E5 E0 E1 E2 E3 E4 E15 E16 E17 E18 E19"/>
    </vehicle>
    <vehicle id="140" depart="350.00">
        <route edges="E1 E2 E3 E4 E15 E16 E17"/>
    </vehicle>
    <vehicle id="141" depart="352.50">
        <route edges="E39 E19 E14 E40 E41 E42 E43 E44 E4 E15 E20"/>
    </vehicle>
    <vehicle id="142" depart="355.00">
        <route edges="E46 E47 E48 E49 E12 E50"/>
    </vehicle>
    <vehicle id="143" depart="357.50">
        <route edges="E14 E13 E12 E11 E10 E9 E8 E7 E6 E5 E0 E1"/>
    </vehicle>
    <vehicle id="144" depart="360.00">
        <route edges="E25 E26 E53 E54 E2 E45"/>
    </vehicle>
    <vehicle id="145" depart="362.50">
        <route edges="E7 E6 E5 E0 E1 E2 E3"/>
    </vehicle>
    <vehicle id="146" depart="365.00">
        <route edges="E47 E48 E49 E12"/>
    </vehicle>
    <vehicle id="147" depart="367.50">
        <route edges="E14 E13 E12 E50"/>
    </vehicle>
    <vehicle id="148" depart="370.00">
        <route edges="E55 E56 E57 E58 E36 E37 E38 E41"/>
    </vehicle>
    <vehicle id="149" depart="372.50">
        <route edges="E15 E16 E17 E18 E19 E14 E13 E12 E11 E10 E9"/>
    </vehicle>
    <vehicle id="150" depart="375.00">
        <route edges="E50 E51 E52 E27"/>
    </vehicle>
    <vehicle id="151" depart="377.50">
        <route edges="E14 E13 E12 E11 E10 E9 E8 E7"/>
    </vehicle>
    <vehicle id="152" depart="380.00">
        <route edges="E49 E12 E11 E10 E9 E8 E7"/>
    </vehicle>
    <vehicle id="153" depart="382.50">
        <route edges="E53 E54 E2 E3 E4 E15 E16 E17 E18 E19 E14 E13"/>
    </vehicle>
    <vehicle id="154" depart="385.00">
        <route edges="E55 E56 E26 E27 E28 E29 E17 E18"/>
    </vehicle>
    <vehicle id="155" depart="387.50">
        <route edges="E2 E45 E46 E47 E32 E33 E58 E36 E51"/>
    </vehicle>
    <vehicle id="156" depart="390.00">
        <route edges="E35 E36 E51 E33 E34 E7 E6 E5"/>
    </vehicle>
    <vehicle id="157" depart="392.50">
        <route edges="E13 E12 E50 E51 E52 E53 E54 E2 E3 E4 E15 E20"/>
    </vehicle>
    <vehicle id="158" depart="395.00">
        <route edges="E4 E15 E16 E17 E30 E31 E32 E33 E34"/>
    </vehicle>
    <vehicle id="159" depart="397.50">
        <route edges="E19 E14 E40 E41 E42 E43 E44 E4 E15"/>
    </vehicle>
    <vehicle id="160" depart="400.00">
        <route edges="E38 E41 E31 E32 E33 E34 E7 E6 E5"/>
    </vehicle>
    <vehicle id="161" depart="402.50">
        <route edges="E19 E14 E13 E12 E50 E51 E52 E53 E54 E2"/>
    </vehicle>
    <vehicle id="162" depart="405.00">
        <route edges="E35 E36 E37 E38 E41 E31 E48"/>
    </vehicle>
    <vehicle id="163" depart="407.50">
        <route edges="E8 E7 E25 E57 E58 E36 E37"/>
    </vehicle>
    <vehicle id="164" depart="410.00">
        <route edges="E23 E56 E26 E27 E28 E29 E17 E18 E19 E14"/>
    </vehicle>
    <vehicle id="165" depart="412.50">
        <route edges="E19 E14 E40 E41 E42 E43 E44 E4 E15 E20"/>
    </vehicle>
    <vehicle id="166" depart="415.00">
        <route edges="E18 E19 E14 E13 E12 E11 E10 E9 E8 E7 E6 E5 E0"/>
    </vehicle>
    <vehicle id="167" depart="417.50">
        <route edges="E38 E41 E42 E43 E21 E22 E23"/>
    </vehicle>
    <vehicle id="168" depart="420.00">
        <route edges="E8 E7 E25 E57 E58 E36 E37 E38 E39"/>
    </vehicle>
    <vehicle id="169" depart="422.50">
        <route edges="E56 E57 E58 E59 E10 E9 E35"/>
    </vehicle>
    <vehicle id="170" depart="425.00">
        <route edges="E56 E26 E53 E54 E2 E3 E4"/>
    </vehicle>
    <vehicle id="171" depart="427.50">
        <route edges="E19 E14 E13 E12 E11"/>
    </vehicle>
    <vehicle id="172" depart="430.00">
        <route edges="E12 E50 E37 E38 E41 E42"/>
    </vehicle>
    <vehicle id="173" depart="432.50">
        <route edges="E11 E10 E9 E8 E7 E6 E5 E0 E1 E2 E3 E4 E15 E16"/>
    </vehicle>
    <vehicle id="174" depart="435.00">
        <route edges="E39 E19 E14 E13 E12 E11 E10 E9 E8 E7 E25"/>
    </vehicle>
    <vehicle id="175" depart="437.50">
        <route edges="E9 E8 E7 E6 E5 E0 E1 E2 E3 E4 E15"/>
    </vehicle>
    <vehicle id="176" depart="440.00">
        <route edges="E5 E0 E1 E2 E45 E46 E47 E48 E38 E41"/>
    </vehicle>
    <vehicle id="177" depart="442.50">
        <route edges="E51 E52 E53 E54 E2 E3 E4 E15 E20"/>
    </vehicle>
    <vehicle id="178" depart="445.00">
        <route edges="E9 E8 E7 E25"/>
    </vehicle>
    <vehicle id="179" depart="447.50">
        <route edges="E49 E12 E11 E10 E9 E8 E7 E6"/>
    </vehicle>
    <vehicle id="180" depart="450.00">
        <route edges="E18 E19 E14 E13 E12"/>
    </vehicle>
    <vehicle id="181" depart="452.50">
        <route edges="E0 E55 E56 E57 E58 E36 E51 E33"/>
    </vehicle>
    <vehicle id="182" depart="455.00">
        <route edges="E40 E41 E42 E43 E21 E22 E23 E24"/>
    </vehicle>
    <vehicle id="183" depart="457.50">
        <route edges="E46 E47 E32 E33 E58 E59"/>
    </vehicle>
    <vehicle id="184" depart="460.00">
        <route edges="E44 E4 E15 E16 E17 E30 E31 E32 E33 E34 E7 E6"/>
    </vehicle>
    <vehicle id="185" depart="462.50">
        <route edges="E43 E21 E22 E23 E56 E57 E58"/>
    </vehicle>
    <vehicle id="186" depart="465.00">
        <route edges="E53 E23 E56 E57 E58 E36 E37 E49 E12"/>
    </vehicle>
    <vehicle id="187" depart="467.50">
        <route edges="E17 E30 E31 E32 E33 E34 E7 E25"/>
    </vehicle>
    <vehicle id="188" depart="470.00">
        <route edges="E49 E12 E50 E51 E52 E53 E54 E2 E3 E4"/>
    </vehicle>
    <vehicle id="189" depart="472.50">
        <route edges="E24 E5 E0 E1 E2 E3 E4 E15"/>
    </vehicle>
    <vehicle id="190" depart="475.00">
        <route edges="E13 E12 E11 E10 E9 E8 E7"/>
    </vehicle>
    <vehicle id="191" depart="477.50">
        <route edges="E54 E2 E3 E4"/>
    </vehicle>
    <vehicle id="192" depart="480.00">
        <route edges="E10 E9 E8 E7 E6 E5"/>
    </vehicle>
    <vehicle id="193" depart="482.50">
        <route edges="E34 E7 E25 E26 E27 E28 E43 E44"/>
    </vehicle>
    <vehicle id="194" depart="485.00">
        <route edges="E58 E36 E37 E38 E41 E42 E29 E17 E18"/>
    </vehicle>
    <vehicle id="195" depart="487.50">
        <route edges="E40 E41 E42 E43"/>
    </vehicle>
    <vehicle id="196" depart="490.00">
        <route edges="E35 E36 E37 E38 E39 E19 E14 E13"/>
    </vehicle>
    <vehicle id="197" depart="492.50">
        <route edges="E52 E27 E47 E48 E38 E39"/>
    </vehicle>
    <vehicle id="198" depart="495.00">
        <route edges="E30 E31 E32 E33 E58 E36"/>
    </vehicle>
    <vehicle id="199" depart="497.50">
        <route edges="E9 E8 E7 E25 E26 E27 E28 E43 E44"/>
    </vehicle>
    <vehicle id="200" depart="500.00">
        <route edges="E5 E0 E1 E2 E45 E46 E47 E48 E38 E41 E42"/>
    </vehicle>
    <vehicle id="201" depart="502.50">
        <route edges="E5 E0 E1 E2"/>
    </vehicle>
    <vehicle id="202" depart="505.00">
        <route edges="E15 E16 E17 E18 E19 E14 E13 E12 E11 E10 E9 E8"/>
    </vehicle>
    <vehicle id="203" depart="507.50">
        <route edges="E41 E42 E43 E21"/>
    </vehicle>
    <vehicle id="204" depart="510.00">
        <route edges="E33 E34 E7 E6 E5 E0 E1 E2 E3 E4 E15"/>
    </vehicle>
    <vehicle id="205" depart="512.50">
        <route edges="E8 E7 E25 E26 E27 E28 E43 E21"/>
    </vehicle>
    <vehicle id="206" depart="515.00">
        <route edges="E39 E19 E14 E13 E12 E50 E51 E52 E53 E54 E2 E3"/>
    </vehicle>
    <vehicle id="207" depart="517.50">
        <route edges="E30 E31 E32 E33 E34 E7 E6"/>
    </vehicle>
    <vehicle id="208" depart="520.00">
        <route edges="E36 E51 E52 E53"/>
    </vehicle>
    <vehicle id="209" depart="522.50">
        <route edges="E40 E41 E31 E48 E49 E12 E11 E10 E9"/>
    </vehicle>
    <vehicle id="210" depart="525.00">
        <route edges="E35 E36 E51 E52 E53 E54 E2 E3 E4 E15 E16"/>
    </vehicle>
    <vehicle id="211" depart="527.50">
        <route edges="E52 E53 E54 E2 E3"/>
    </vehicle>
    <vehicle id="212" depart="530.00">
        <route edges="E40 E41 E42 E43 E21 E22 E23 E56"/>
    </vehicle>
    <vehicle id="213" depart="532.50">
        <route edges="E43 E21 E22 E23 E24 E5 E0 E55"/>
    </vehicle>
    <vehicle id="214" depart="535.00">
        <route edges="E29 E17 E30 E31 E32 E33 E34 E7 E25"/>
    </vehicle>
    <vehicle id="215" depart="537.50">
        <route edges="E48 E49 E12 E11 E10 E9 E8 E7 E6 E5"/>
    </vehicle>
    <vehicle id="216" depart="540.00">
        <route edges="E56 E57 E58 E59 E10"/>
    </vehicle>
    <vehicle id="217" depart="542.50">
        <route edges="E12 E50 E37 E38 E41 E42"/>
    </vehicle>
    <vehicle id="218" depart="545.00">
        <route edges="E13 E12 E50 E37 E38 E41 E42 E43"/>
    </vehicle>
    <vehicle id="219" depart="547.50">
        <route edges="E46 E47 E32 E33 E58"/>
    </vehicle>
    <vehicle id="220" depart="550.00">
        <route edges="E24 E5 E0 E1 E2 E45 E46 E28 E29"/>
    </vehicle>
    <vehicle id="221" depart="552.50">
        <route edges="E16 E17 E30 E31 E32 E33 E58 E36 E37"/>
    </vehicle>
    <vehicle id="222" depart="555.00">
        <route edges="E18 E19 E14 E13 E12"/>
    </vehicle>
    <vehicle id="223" depart="557.50">
        <route edges="E56 E57 E58 E36 E37 E38 E41 E42"/>
    </vehicle>
    <vehicle id="224" depart="560.00">
        <route edges="E21 E22 E23 E56 E57 E58"/>
    </vehicle>
    <vehicle id="225" depart="562.50">
        <route edges="E16 E17 E30 E31 E32 E33"/>
    </vehicle>
    <vehicle id="226" depart="565.00">
        <route edges="E17 E30 E31 E32"/>
    </vehicle>
    <vehicle id="227" depart="567.50">
        <route edges="E19 E14 E13 E12 E50 E51 E52 E53 E54 E2 E3"/>
    </vehicle>
    <vehicle id="228" depart="570.00">
        <route edges="E9 E8 E7 E25 E26 E53 E23 E24"/>
    </vehicle>
    <vehicle id="229" depart="572.50">
        <route edges="E8 E7 E25 E26 E27 E28 E43 E44"/>
    </vehicle>
    <vehicle id="230" depart="575.00">
        <route edges="E23 E56 E57 E58 E36 E37 E38 E39"/>
    </vehicle>
    <vehicle id="231" depart="577.50">
        <route edges="E46 E47 E48 E49"/>
    </vehicle>
    <vehicle id="232" depart="580.00">
        <route edges="E10 E9 E35 E36 E37 E38 E41"/>
    </vehicle>
    <vehicle id="233" depart="582.50">
        <route edges="E45 E46 E47 E48"/>
    </vehicle>
    <vehicle id="234" depart="585.00">
        <route edges="E42 E43 E21 E22 E23 E56 E57 E58"/>
    </vehicle>
    <vehicle id="235" depart="587.50">
        <route edges="E43 E21 E22 E23 E56 E57 E34 E7 E25"/>
    </vehicle>
    <vehicle id="236" depart="590.00">
        <route edges="E32 E52 E53 E54 E2 E3 E4"/>
    </vehicle>
    <vehicle id="237" depart="592.50">
        <route edges="E24 E5 E0 E1 E2 E45 E46 E47 E48 E49"/>
    </vehicle>
    <vehicle id="238" depart="595.00">
        <route edges="E38 E39 E19 E14 E13 E12 E11 E10 E9 E8"/>
    </vehicle>
    <vehicle id="239" depart="597.50">
        <route edges="E27 E28 E29 E17 E18 E19 E14"/>
    </vehicle>
    <vehicle id="240" depart="600.00">
        <route edges="E7 E6 E5 E0 E1 E2 E3 E4 E15 E16"/>
    </vehicle>
    <vehicle id="241" depart="602.50">
        <route edges="E48 E49 E12 E11 E10 E9 E8"/>
    </vehicle>
    <vehicle id="242" depart="605.00">
        <route edges="E0 E1 E2 E45 E46 E47 E48 E38"/>
    </vehicle>
    <vehicle id="243" depart="607.50">
        <route edges="E45 E46 E28 E29 E17 E18 E19 E14 E40"/>
    </vehicle>
    <vehicle id="244" depart="610.00">
        <route edges="E14 E40 E41 E42 E43 E21"/>
    </vehicle>
    <vehicle id="245" depart="612.50">
        <route edges="E1 E2 E45 E22 E23 E56 E57"/>
    </vehicle>
    <vehicle id="246" depart="615.00">
        <route edges="E39 E19 E14 E13 E12 E50 E51 E33 E58"/>
    </vehicle>
    <vehicle id="247" depart="617.50">
        <route edges="E20 E21 E46 E47 E48 E49 E12 E11"/>
    </vehicle>
    <vehicle id="248" depart="620.00">
        <route edges="E25 E26 E27 E28 E29 E17 E30"/>
    </vehicle>
    <vehicle id="249" depart="622.50">
        <route edges="E16 E17 E30 E31 E32 E33 E34 E7 E6"/>
    </vehicle>
    <vehicle id="250" depart="625.00">
        <route edges="E13 E12 E50 E51 E52 E53 E23 E56 E57"/>
    </vehicle>
    <vehicle id="251" depart="627.50">
        <route edges="E16 E17 E30 E31 E32 E33"/>
    </vehicle>
    <vehicle id="252" depart="630.00">
        <route edges="E45 E46 E47 E48 E49"/>
    </vehicle>
    <vehicle id="253" depart="632.50">
        <route edges="E6 E5 E0 E1 E2 E3 E4 E15 E16 E17 E30 E31"/>
    </vehicle>
    <vehicle id="254" depart="635.00">
        <route edges="E35 E36 E37 E38 E41 E42 E29 E17 E30"/>
    </vehicle>
    <vehicle id="255" depart="637.50">
        <route edges="E7 E6 E5 E0 E1"/>
    </vehicle>
    <vehicle id="256" depart="640.00">
        <route edges="E13 E12 E50 E37 E38 E41 E42 E43 E21 E46"/>
    </vehicle>
    <vehicle id="257" depart="642.50">
        <route edges="E38 E39 E19 E14 E13 E12 E11 E10 E9 E8"/>
    </vehicle>
    <vehicle id="258" depart="645.00">
        <route edges="E19 E14 E40 E41 E42 E43 E44 E4 E15"/>
    </vehicle>
    <vehicle id="259" depart="647.50">
        <route edges="E40 E41 E31 E32 E33 E34 E7 E6 E5 E0 E1"/>
    </vehicle>
    <vehicle id="260" depart="650.00">
        <route edges="E51 E52 E27 E28 E43 E21"/>
    </vehicle>
    <vehicle id="261" depart="652.50">
        <route edges="E15 E16 E17 E30 E31 E48 E38 E39"/>
    </vehicle>
    <vehicle id="262" depart="655.00">
        <route edges="E12 E11 E10 E9 E8 E7 E6 E5"/>
    </vehicle>
    <vehicle id="263" depart="657.50">
        <route edges="E16 E17 E30 E31 E32 E33 E58"/>
    </vehicle>
    <vehicle id="264" depart="660.00">
        <route edges="E22 E23 E56 E26 E27 E28 E29 E17 E18"/>
    </vehicle>
    <vehicle id="265" depart="662.50">
        <route edges="E0 E55 E56 E57 E58 E36 E51"/>
    </vehicle>
    <vehicle id="266" depart="665.00">