<?xml version="1.0" encoding="UTF-8"?>

<!-- generated on 2025-05-20 16:18:08 by Eclipse SUMO netedit Version 1.23.1
<neteditConfiguration xmlns:xsi="http://www.w3.org/2001/XMLSchema-instance" xsi:noNamespaceSchemaLocation="http://sumo.dlr.de/xsd/neteditConfiguration.xsd">

    <input>
        <sumo-net-file value="/home/eduardo/Documents/Projects/tcc/sumo/grid.net.xml"/>
    </input>

    <output>
        <output-file value="/home/eduardo/Documents/Projects/tcc/sumo/grid.net.xml"/>
        <output.street-names value="true"/>
    </output>

    <processing>
        <offset.disable-normalization value="true"/>
    </processing>

    <junctions>
        <no-turnarounds value="true"/>
    </junctions>

    <netedit>
        <new-network value="false"/>
    </netedit>

</neteditConfiguration>
-->

<net version="1.20" junctionCornerDetail="5" limitTurnSpeed="5.50" xmlns:xsi="http://www.w3.org/2001/XMLSchema-instance" xsi:noNamespaceSchemaLocation="http://sumo.dlr.de/xsd/net_file.xsd">

    <location netOffset="0.00,0.00" convBoundary="0.00,0.00,1000.00,1000.00" origBoundary="10000000000.00,10000000000.00,-10000000000.00,-10000000000.00" projParameter="!"/>

    <edge id=":0_0" function="internal">
        <lane id=":0_0_0" index="0" speed="3.90" length="2.58" shape="0.00,1001.60 -0.70,1001.50 -1.20,1001.20 -1.50,1000.70 -1.60,1000.00"/>
    </edge>
    <edge id=":1_0" function="internal">
        <lane id=":1_0_0" index="0" speed="13.89" length="11.20" width="3.20" shape="207.20,1001.60 196.00,1001.60"/>
    </edge>
    <edge id=":1_1" function="internal">
        <lane id=":1_1_0" index="0" speed="6.51" length="4.11" width="3.20" shape="201.60,996.00 201.25,998.45 200.41,999.85"/>
    </edge>
    <edge id=":1_2" function="internal">
        <lane id=":1_2_0" index="0" speed="6.51" length="4.93" width="3.20" shape="200.41,999.85 200.20,1000.20 198.45,1001.25 196.00,1001.60"/>
    </edge>
    <edge id=":10_0" function="internal">
        <lane id=":10_0_0" index="0" speed="13.89" length="11.20" shape="798.40,804.00 798.40,792.80"/>
    </edge>
    <edge id=":10_1" function="internal">
        <lane id=":10_1_0" index="0" speed="6.51" length="4.11" shape="798.40,804.00 798.75,801.55 799.59,800.15"/>
    </edge>
    <edge id=":10_4" function="internal">
        <lane id=":10_4_0" index="0" speed="6.51" length="4.93" shape="799.59,800.15 799.80,799.80 801.55,798.75 804.00,798.40"/>
    </edge>
    <edge id=":10_2" function="internal">
        <lane id=":10_2_0" index="0" speed="6.51" length="9.03" shape="792.80,798.40 795.25,798.05 797.00,797.00 798.05,795.25 798.40,792.80"/>
    </edge>
    <edge id=":10_3" function="internal">
        <lane id=":10_3_0" index="0" speed="13.89" length="11.20" shape="792.80,798.40 804.00,798.40"/>
    </edge>
    <edge id=":11_0" function="internal">
        <lane id=":11_0_0" index="0" speed="13.89" length="11.20" shape="1001.60,792.80 1001.60,804.00"/>
    </edge>
    <edge id=":11_1" function="internal">
        <lane id=":11_1_0" index="0" speed="6.51" length="4.11" shape="996.00,798.40 998.45,798.75 999.85,799.59"/>
    </edge>
    <edge id=":11_2" function="internal">
        <lane id=":11_2_0" index="0" speed="6.51" length="4.93" shape="999.85,799.59 1000.20,799.80 1001.25,801.55 1001.60,804.00"/>
    </edge>
    <edge id=":12_0" function="internal">
        <lane id=":12_0_0" index="0" speed="13.89" length="11.20" shape="-1.60,607.20 -1.60,596.00"/>
    </edge>
    <edge id=":12_1" function="internal">
        <lane id=":12_1_0" index="0" speed="6.51" length="4.11" shape="4.00,601.60 1.55,601.25 0.15,600.41"/>
    </edge>
    <edge id=":12_2" function="internal">
        <lane id=":12_2_0" index="0" speed="6.51" length="4.93" shape="0.15,600.41 -0.20,600.20 -1.25,598.45 -1.60,596.00"/>
    </edge>
    <edge id=":13_0" function="internal">
        <lane id=":13_0_0" index="0" speed="6.51" length="9.03" shape="207.20,601.60 204.75,601.95 203.00,603.00 201.95,604.75 201.60,607.20"/>
    </edge>
    <edge id=":13_1" function="internal">
        <lane id=":13_1_0" index="0" speed="13.89" length="11.20" shape="207.20,601.60 196.00,601.60"/>
    </edge>
    <edge id=":13_2" function="internal">
        <lane id=":13_2_0" index="0" speed="13.89" length="11.20" shape="201.60,596.00 201.60,607.20"/>
    </edge>
    <edge id=":13_3" function="internal">
        <lane id=":13_3_0" index="0" speed="6.51" length="4.11" shape="201.60,596.00 201.25,598.45 200.41,599.85"/>
    </edge>
    <edge id=":13_4" function="internal">
        <lane id=":13_4_0" index="0" speed="6.51" length="4.93" shape="200.41,599.85 200.20,600.20 198.45,601.25 196.00,601.60"/>
    </edge>
    <edge id=":14_0" function="internal">
        <lane id=":14_0_0" index="0" speed="6.51" length="9.03" shape="398.40,607.20 398.05,604.75 397.00,603.00 395.25,601.95 392.80,601.60"/>
    </edge>
    <edge id=":14_1" function="internal">
        <lane id=":14_1_0" index="0" speed="13.89" length="11.20" shape="398.40,607.20 398.40,596.00"/>
    </edge>
    <edge id=":14_2" function="internal">
        <lane id=":14_2_0" index="0" speed="13.89" length="11.20" shape="404.00,601.60 392.80,601.60"/>
    </edge>
    <edge id=":14_3" function="internal">
        <lane id=":14_3_0" index="0" speed="6.51" length="4.11" shape="404.00,601.60 401.55,601.25 400.15,600.41"/>
    </edge>
    <edge id=":14_4" function="internal">
        <lane id=":14_4_0" index="0" speed="6.51" length="4.93" shape="400.15,600.41 399.80,600.20 398.75,598.45 398.40,596.00"/>
    </edge>
    <edge id=":15_0" function="internal">
        <lane id=":15_0_0" index="0" speed="6.51" length="9.03" shape="607.20,601.60 604.75,601.95 603.00,603.00 601.95,604.75 601.60,607.20"/>
    </edge>
    <edge id=":15_1" function="internal">
        <lane id=":15_1_0" index="0" speed="13.89" length="11.20" shape="607.20,601.60 596.00,601.60"/>
    </edge>
    <edge id=":15_2" function="internal">
        <lane id=":15_2_0" index="0" speed="13.89" length="11.20" shape="601.60,596.00 601.60,607.20"/>
    </edge>
    <edge id=":15_3" function="internal">
        <lane id=":15_3_0" index="0" speed="6.51" length="4.11" shape="601.60,596.00 601.25,598.45 600.41,599.85"/>
    </edge>
    <edge id=":15_4" function="internal">
        <lane id=":15_4_0" index="0" speed="6.51" length="4.93" shape="600.41,599.85 600.20,600.20 598.45,601.25 596.00,601.60"/>
    </edge>
    <edge id=":16_0" function="internal">
        <lane id=":16_0_0" index="0" speed="6.51" length="9.03" shape="798.40,607.20 798.05,604.75 797.00,603.00 795.25,601.95 792.80,601.60"/>
    </edge>
    <edge id=":16_1" function="internal">
        <lane id=":16_1_0" index="0" speed="13.89" length="11.20" shape="798.40,607.20 798.40,596.00"/>
    </edge>
    <edge id=":16_2" function="internal">
        <lane id=":16_2_0" index="0" speed="13.89" length="11.20" shape="804.00,601.60 792.80,601.60"/>
    </edge>
    <edge id=":16_3" function="internal">
        <lane id=":16_3_0" index="0" speed="6.51" length="4.11" shape="804.00,601.60 801.55,601.25 800.15,600.41"/>
    </edge>
    <edge id=":16_4" function="internal">
        <lane id=":16_4_0" index="0" speed="6.51" length="4.93" shape="800.15,600.41 799.80,600.20 798.75,598.45 798.40,596.00"/>
    </edge>
    <edge id=":17_0" function="internal">
        <lane id=":17_0_0" index="0" speed="13.89" length="11.20" shape="1001.60,596.00 1001.60,607.20"/>
    </edge>
    <edge id=":17_1" function="internal">
        <lane id=":17_1_0" index="0" speed="6.51" length="9.03" shape="1001.60,596.00 1001.25,598.45 1000.20,600.20 998.45,601.25 996.00,601.60"/>
    </edge>
    <edge id=":18_0" function="internal">
        <lane id=":18_0_0" index="0" speed="13.89" length="11.20" shape="-1.60,404.00 -1.60,392.80"/>
    </edge>
    <edge id=":18_1" function="internal">
        <lane id=":18_1_0" index="0" speed="6.51" length="9.03" shape="-1.60,404.00 -1.25,401.55 -0.20,399.80 1.55,398.75 4.00,398.40"/>
    </edge>
    <edge id=":19_0" function="internal">
        <lane id=":19_0_0" index="0" speed="6.51" length="9.03" shape="201.60,392.80 201.95,395.25 203.00,397.00 204.75,398.05 207.20,398.40"/>
    </edge>
    <edge id=":19_1" function="internal">
        <lane id=":19_1_0" index="0" speed="13.89" length="11.20" shape="201.60,392.80 201.60,404.00"/>
    </edge>
    <edge id=":19_2" function="internal">
        <lane id=":19_2_0" index="0" speed="13.89" length="11.20" shape="196.00,398.40 207.20,398.40"/>
    </edge>
    <edge id=":19_3" function="internal">
        <lane id=":19_3_0" index="0" speed="6.51" length="4.11" shape="196.00,398.40 198.45,398.75 199.85,399.59"/>
    </edge>
    <edge id=":19_4" function="internal">
        <lane id=":19_4_0" index="0" speed="6.51" length="4.93" shape="199.85,399.59 200.20,399.80 201.25,401.55 201.60,404.00"/>
    </edge>
    <edge id=":2_0" function="internal">
        <lane id=":2_0_0" index="0" speed="13.89" length="11.20" width="3.20" shape="404.00,1001.60 392.80,1001.60"/>
    </edge>
    <edge id=":2_1" function="internal">
        <lane id=":2_1_0" index="0" speed="6.51" length="9.03" shape="404.00,1001.60 401.55,1001.25 399.80,1000.20 398.75,998.45 398.40,996.00"/>
    </edge>
    <edge id=":20_0" function="internal">
        <lane id=":20_0_0" index="0" speed="13.89" length="11.20" shape="398.40,404.00 398.40,392.80"/>
    </edge>
    <edge id=":20_1" function="internal">
        <lane id=":20_1_0" index="0" speed="6.51" length="4.11" shape="398.40,404.00 398.75,401.55 399.59,400.15"/>
    </edge>
    <edge id=":20_4" function="internal">
        <lane id=":20_4_0" index="0" speed="6.51" length="4.93" shape="399.59,400.15 399.80,399.80 401.55,398.75 404.00,398.40"/>
    </edge>
    <edge id=":20_2" function="internal">
        <lane id=":20_2_0" index="0" speed="6.51" length="9.03" shape="392.80,398.40 395.25,398.05 397.00,397.00 398.05,395.25 398.40,392.80"/>
    </edge>
    <edge id=":20_3" function="internal">
        <lane id=":20_3_0" index="0" speed="13.89" length="11.20" shape="392.80,398.40 404.00,398.40"/>
    </edge>
    <edge id=":21_0" function="internal">
        <lane id=":21_0_0" index="0" speed="6.51" length="9.03" shape="601.60,392.80 601.95,395.25 603.00,397.00 604.75,398.05 607.20,398.40"/>
    </edge>
    <edge id=":21_1" function="internal">
        <lane id=":21_1_0" index="0" speed="13.89" length="11.20" shape="601.60,392.80 601.60,404.00"/>
    </edge>
    <edge id=":21_2" function="internal">
        <lane id=":21_2_0" index="0" speed="13.89" length="11.20" shape="596.00,398.40 607.20,398.40"/>
    </edge>
    <edge id=":21_3" function="internal">
        <lane id=":21_3_0" index="0" speed="6.51" length="4.11" shape="596.00,398.40 598.45,398.75 599.85,399.59"/>
    </edge>
    <edge id=":21_4" function="internal">
        <lane id=":21_4_0" index="0" speed="6.51" length="4.93" shape="599.85,399.59 600.20,399.80 601.25,401.55 601.60,404.00"/>
    </edge>
    <edge id=":22_0" function="internal">
        <lane id=":22_0_0" index="0" speed="13.89" length="11.20" shape="798.40,404.00 798.40,392.80"/>
    </edge>
    <edge id=":22_1" function="internal">
        <lane id=":22_1_0" index="0" speed="6.51" length="4.11" shape="798.40,404.00 798.75,401.55 799.59,400.15"/>
    </edge>
    <edge id=":22_4" function="internal">
        <lane id=":22_4_0" index="0" speed="6.51" length="4.93" shape="799.59,400.15 799.80,399.80 801.55,398.75 804.00,398.40"/>
    </edge>
    <edge id=":22_2" function="internal">
        <lane id=":22_2_0" index="0" speed="6.51" length="9.03" shape="792.80,398.40 795.25,398.05 797.00,397.00 798.05,395.25 798.40,392.80"/>
    </edge>
    <edge id=":22_3" function="internal">
        <lane id=":22_3_0" index="0" speed="13.89" length="11.20" shape="792.80,398.40 804.00,398.40"/>
    </edge>
    <edge id=":23_0" function="internal">
        <lane id=":23_0_0" index="0" speed="13.89" length="11.20" shape="1001.60,392.80 1001.60,404.00"/>
    </edge>
    <edge id=":23_1" function="internal">
        <lane id=":23_1_0" index="0" speed="6.51" length="4.11" shape="996.00,398.40 998.45,398.75 999.85,399.59"/>
    </edge>
    <edge id=":23_2" function="internal">
        <lane id=":23_2_0" index="0" speed="6.51" length="4.93" shape="999.85,399.59 1000.20,399.80 1001.25,401.55 1001.60,404.00"/>
    </edge>
    <edge id=":24_0" function="internal">
        <lane id=":24_0_0" index="0" speed="13.89" length="11.20" shape="-1.60,207.20 -1.60,196.00"/>
    </edge>
    <edge id=":24_1" function="internal">
        <lane id=":24_1_0" index="0" speed="6.51" length="4.11" shape="4.00,201.60 1.55,201.25 0.15,200.41"/>
    </edge>
    <edge id=":24_2" function="internal">
        <lane id=":24_2_0" index="0" speed="6.51" length="4.93" shape="0.15,200.41 -0.20,200.20 -1.25,198.45 -1.60,196.00"/>
    </edge>
    <edge id=":25_0" function="internal">
        <lane id=":25_0_0" index="0" speed="6.51" length="9.03" shape="207.20,201.60 204.75,201.95 203.00,203.00 201.95,204.75 201.60,207.20"/>
    </edge>
    <edge id=":25_1" function="internal">
        <lane id=":25_1_0" index="0" speed="13.89" length="11.20" shape="207.20,201.60 196.00,201.60"/>
    </edge>
    <edge id=":25_2" function="internal">
        <lane id=":25_2_0" index="0" speed="13.89" length="11.20" shape="201.60,196.00 201.60,207.20"/>
    </edge>
    <edge id=":25_3" function="internal">
        <lane id=":25_3_0" index="0" speed="6.51" length="4.11" shape="201.60,196.00 201.25,198.45 200.41,199.85"/>
    </edge>
    <edge id=":25_4" function="internal">
        <lane id=":25_4_0" index="0" speed="6.51" length="4.93" shape="200.41,199.85 200.20,200.20 198.45,201.25 196.00,201.60"/>
    </edge>
    <edge id=":26_0" function="internal">
        <lane id=":26_0_0" index="0" speed="6.51" length="9.03" shape="398.40,207.20 398.05,204.75 397.00,203.00 395.25,201.95 392.80,201.60"/>
    </edge>
    <edge id=":26_1" function="internal">
        <lane id=":26_1_0" index="0" speed="13.89" length="11.20" shape="398.40,207.20 398.40,196.00"/>
    </edge>
    <edge id=":26_2" function="internal">
        <lane id=":26_2_0" index="0" speed="13.89" length="11.20" shape="404.00,201.60 392.80,201.60"/>
    </edge>
    <edge id=":26_3" function="internal">
        <lane id=":26_3_0" index="0" speed="6.51" length="4.11" shape="404.00,201.60 401.55,201.25 400.15,200.41"/>
    </edge>
    <edge id=":26_4" function="internal">
        <lane id=":26_4_0" index="0" speed="6.51" length="4.93" shape="400.15,200.41 399.80,200.20 398.75,198.45 398.40,196.00"/>
    </edge>
    <edge id=":27_0" function="internal">
        <lane id=":27_0_0" index="0" speed="6.51" length="9.03" shape="607.20,201.60 604.75,201.95 603.00,203.00 601.95,204.75 601.60,207.20"/>
    </edge>
    <edge id=":27_1" function="internal">
        <lane id=":27_1_0" index="0" speed="13.89" length="11.20" shape="607.20,201.60 596.00,201.60"/>
    </edge>
    <edge id=":27_2" function="internal">
        <lane id=":27_2_0" index="0" speed="13.89" length="11.20" shape="601.60,196.00 601.60,207.20"/>
    </edge>
    <edge id=":27_3" function="internal">
        <lane id=":27_3_0" index="0" speed="6.51" length="4.11" shape="601.60,196.00 601.25,198.45 600.41,199.85"/>
    </edge>
    <edge id=":27_4" function="internal">
        <lane id=":27_4_0" index="0" speed="6.51" length="4.93" shape="600.41,199.85 600.20,200.20 598.45,201.25 596.00,201.60"/>
    </edge>
    <edge id=":28_0" function="internal">
        <lane id=":28_0_0" index="0" speed="6.51" length="9.03" shape="798.40,207.20 798.05,204.75 797.00,203.00 795.25,201.95 792.80,201.60"/>
    </edge>
    <edge id=":28_1" function="internal">
        <lane id=":28_1_0" index="0" speed="13.89" length="11.20" shape="798.40,207.20 798.40,196.00"/>
    </edge>
    <edge id=":28_2" function="internal">
        <lane id=":28_2_0" index="0" speed="13.89" length="11.20" shape="804.00,201.60 792.80,201.60"/>
    </edge>
    <edge id=":28_3" function="internal">
        <lane id=":28_3_0" index="0" speed="6.51" length="4.11" shape="804.00,201.60 801.55,201.25 800.15,200.41"/>
    </edge>
    <edge id=":28_4" function="internal">
        <lane id=":28_4_0" index="0" speed="6.51" length="4.93" shape="800.15,200.41 799.80,200.20 798.75,198.45 798.40,196.00"/>
    </edge>
    <edge id=":29_0" function="internal">
        <lane id=":29_0_0" index="0" speed="13.89" length="11.20" shape="1001.60,196.00 1001.60,207.20"/>
    </edge>
    <edge id=":29_1" function="internal">
        <lane id=":29_1_0" index="0" speed="6.51" length="9.03" shape="1001.60,196.00 1001.25,198.45 1000.20,200.20 998.45,201.25 996.00,201.60"/>
    </edge>
    <edge id=":3_0" function="internal">
        <lane id=":3_0_0" index="0" speed="13.89" length="11.20" width="3.20" shape="607.20,1001.60 596.00,1001.60"/>
    </edge>
    <edge id=":3_1" function="internal">
        <lane id=":3_1_0" index="0" speed="6.51" length="4.11" width="3.20" shape="601.60,996.00 601.25,998.45 600.41,999.85"/>
    </edge>
    <edge id=":3_2" function="internal">
        <lane id=":3_2_0" index="0" speed="6.51" length="4.93" width="3.20" shape="600.41,999.85 600.20,1000.20 598.45,1001.25 596.00,1001.60"/>
    </edge>
    <edge id=":30_0" function="internal">
        <lane id=":30_0_0" index="0" speed="3.90" length="2.58" shape="-1.60,0.00 -1.50,-0.70 -1.20,-1.20 -0.70,-1.50 0.00,-1.60"/>
    </edge>
    <edge id=":31_0" function="internal">
        <lane id=":31_0_0" index="0" speed="13.89" length="11.20" shape="196.00,-1.60 207.20,-1.60"/>
    </edge>
    <edge id=":31_1" function="internal">
        <lane id=":31_1_0" index="0" speed="6.51" length="9.03" shape="196.00,-1.60 198.45,-1.25 200.20,-0.20 201.25,1.55 201.60,4.00"/>
    </edge>
    <edge id=":32_0" function="internal">
        <lane id=":32_0_0" index="0" speed="6.51" length="4.11" shape="398.40,4.00 398.75,1.55 399.59,0.15"/>
    </edge>
    <edge id=":32_2" function="internal">
        <lane id=":32_2_0" index="0" speed="6.51" length="4.93" shape="399.59,0.15 399.80,-0.20 401.55,-1.25 404.00,-1.60"/>
    </edge>
    <edge id=":32_1" function="internal">
        <lane id=":32_1_0" index="0" speed="13.89" length="11.20" shape="392.80,-1.60 404.00,-1.60"/>
    </edge>
    <edge id=":33_0" function="internal">
        <lane id=":33_0_0" index="0" speed="13.89" length="11.20" shape="596.00,-1.60 607.20,-1.60"/>
    </edge>
    <edge id=":33_1" function="internal">
        <lane id=":33_1_0" index="0" speed="6.51" length="9.03" shape="596.00,-1.60 598.45,-1.25 600.20,-0.20 601.25,1.55 601.60,4.00"/>
    </edge>
    <edge id=":34_0" function="internal">
        <lane id=":34_0_0" index="0" speed="6.51" length="4.11" shape="798.40,4.00 798.75,1.55 799.59,0.15"/>
    </edge>
    <edge id=":34_2" function="internal">
        <lane id=":34_2_0" index="0" speed="6.51" length="4.93" shape="799.59,0.15 799.80,-0.20 801.55,-1.25 804.00,-1.60"/>
    </edge>
    <edge id=":34_1" function="internal">
        <lane id=":34_1_0" index="0" speed="13.89" length="11.20" shape="792.80,-1.60 804.00,-1.60"/>
    </edge>
    <edge id=":35_0" function="internal">
        <lane id=":35_0_0" index="0" speed="3.90" length="2.58" shape="1000.00,-1.60 1000.70,-1.50 1001.20,-1.20 1001.50,-0.70 1001.60,0.00"/>
    </edge>
    <edge id=":4_0" function="internal">
        <lane id=":4_0_0" index="0" speed="13.89" length="11.20" width="3.20" shape="804.00,1001.60 792.80,1001.60"/>
    </edge>
    <edge id=":4_1" function="internal">
        <lane id=":4_1_0" index="0" speed="6.51" length="9.03" shape="804.00,1001.60 801.55,1001.25 799.80,1000.20 798.75,998.45 798.40,996.00"/>
    </edge>
    <edge id=":5_0" function="internal">
        <lane id=":5_0_0" index="0" speed="3.90" length="2.58" width="3.20" shape="1001.60,1000.00 1001.50,1000.70 1001.20,1001.20 1000.70,1001.50 1000.00,1001.60"/>
    </edge>
    <edge id=":6_0" function="internal">
        <lane id=":6_0_0" index="0" speed="13.89" length="11.20" shape="-1.60,804.00 -1.60,792.80"/>
    </edge>
    <edge id=":6_1" function="internal">
        <lane id=":6_1_0" index="0" speed="6.51" length="9.03" shape="-1.60,804.00 -1.25,801.55 -0.20,799.80 1.55,798.75 4.00,798.40"/>
    </edge>
    <edge id=":7_0" function="internal">
        <lane id=":7_0_0" index="0" speed="6.51" length="9.03" shape="201.60,792.80 201.95,795.25 203.00,797.00 204.75,798.05 207.20,798.40"/>
    </edge>
    <edge id=":7_1" function="internal">
        <lane id=":7_1_0" index="0" speed="13.89" length="11.20" shape="201.60,792.80 201.60,804.00"/>
    </edge>
    <edge id=":7_2" function="internal">
        <lane id=":7_2_0" index="0" speed="13.89" length="11.20" shape="196.00,798.40 207.20,798.40"/>
    </edge>
    <edge id=":7_3" function="internal">
        <lane id=":7_3_0" index="0" speed="6.51" length="4.11" shape="196.00,798.40 198.45,798.75 199.85,799.59"/>
    </edge>
    <edge id=":7_4" function="internal">
        <lane id=":7_4_0" index="0" speed="6.51" length="4.93" shape="199.85,799.59 200.20,799.80 201.25,801.55 201.60,804.00"/>
    </edge>
    <edge id=":8_0" function="internal">
        <lane id=":8_0_0" index="0" speed="13.89" length="11.20" shape="398.40,804.00 398.40,792.80"/>
    </edge>
    <edge id=":8_1" function="internal">
        <lane id=":8_1_0" index="0" speed="6.51" length="4.11" shape="398.40,804.00 398.75,801.55 399.59,800.15"/>
    </edge>
    <edge id=":8_4" function="internal">
        <lane id=":8_4_0" index="0" speed="6.51" length="4.93" shape="399.59,800.15 399.80,799.80 401.55,798.75 404.00,798.40"/>
    </edge>
    <edge id=":8_2" function="internal">
        <lane id=":8_2_0" index="0" speed="6.51" length="9.03" shape="392.80,798.40 395.25,798.05 397.00,797.00 398.05,795.25 398.40,792.80"/>
    </edge>
    <edge id=":8_3" function="internal">
        <lane id=":8_3_0" index="0" speed="13.89" length="11.20" shape="392.80,798.40 404.00,798.40"/>
    </edge>
    <edge id=":9_0" function="internal">
        <lane id=":9_0_0" index="0" speed="6.51" length="9.03" shape="601.60,792.80 601.95,795.25 603.00,797.00 604.75,798.05 607.20,798.40"/>
    </edge>
    <edge id=":9_1" function="internal">
        <lane id=":9_1_0" index="0" speed="13.89" length="11.20" shape="601.60,792.80 601.60,804.00"/>
    </edge>
    <edge id=":9_2" function="internal">
        <lane id=":9_2_0" index="0" speed="13.89" length="11.20" shape="596.00,798.40 607.20,798.40"/>
    </edge>
    <edge id=":9_3" function="internal">
        <lane id=":9_3_0" index="0" speed="6.51" length="4.11" shape="596.00,798.40 598.45,798.75 599.85,799.59"/>
    </edge>
    <edge id=":9_4" function="internal">
        <lane id=":9_4_0" index="0" speed="6.51" length="4.93" shape="599.85,799.59 600.20,799.80 601.25,801.55 601.60,804.00"/>
    </edge>

    <edge id="E0" from="30" to="31" priority="-1">
        <lane id="E0_0" index="0" speed="13.89" length="196.00" shape="0.00,-1.60 196.00,-1.60"/>
    </edge>
    <edge id="E1" from="31" to="32" priority="-1">
        <lane id="E1_0" index="0" speed="13.89" length="185.60" shape="207.20,-1.60 392.80,-1.60"/>
    </edge>
    <edge id="E10" from="1" to="0" priority="-1">
        <lane id="E10_0" index="0" speed="13.89" length="196.00" width="3.20" shape="196.00,1001.60 0.00,1001.60"/>
    </edge>
    <edge id="E11" from="2" to="1" priority="-1">
        <lane id="E11_0" index="0" speed="13.89" length="185.60" width="3.20" shape="392.80,1001.60 207.20,1001.60"/>
    </edge>
    <edge id="E12" from="3" to="2" priority="-1">
        <lane id="E12_0" index="0" speed="13.89" length="192.00" width="3.20" shape="596.00,1001.60 404.00,1001.60"/>
    </edge>
    <edge id="E13" from="4" to="3" priority="-1">
        <lane id="E13_0" index="0" speed="13.89" length="185.60" width="3.20" shape="792.80,1001.60 607.20,1001.60"/>
    </edge>
    <edge id="E14" from="5" to="4" priority="-1" shape="1000.00,1000.00 900.00,1000.00 800.00,1000.00">
        <lane id="E14_0" index="0" speed="13.89" length="196.00" width="3.20" shape="1000.00,1001.60 900.00,1001.60 804.00,1001.60"/>
    </edge>
    <edge id="E15" from="35" to="29" priority="-1">
        <lane id="E15_0" index="0" speed="13.89" length="196.00" shape="1001.60,0.00 1001.60,196.00"/>
    </edge>
    <edge id="E16" from="29" to="23" priority="-1">
        <lane id="E16_0" index="0" speed="13.89" length="185.60" shape="1001.60,207.20 1001.60,392.80"/>
    </edge>
    <edge id="E17" from="23" to="17" priority="-1">
        <lane id="E17_0" index="0" speed="13.89" length="192.00" shape="1001.60,404.00 1001.60,596.00"/>
    </edge>
    <edge id="E18" from="17" to="11" priority="-1">
        <lane id="E18_0" index="0" speed="13.89" length="185.60" shape="1001.60,607.20 1001.60,792.80"/>
    </edge>
    <edge id="E19" from="11" to="5" priority="-1">
        <lane id="E19_0" index="0" speed="13.89" length="196.00" shape="1001.60,804.00 1001.60,1000.00"/>
    </edge>
    <edge id="E2" from="32" to="33" priority="-1">
        <lane id="E2_0" index="0" speed="13.89" length="192.00" shape="404.00,-1.60 596.00,-1.60"/>
    </edge>
    <edge id="E20" from="29" to="28" priority="-1">
        <lane id="E20_0" index="0" speed="13.89" length="192.00" shape="996.00,201.60 804.00,201.60"/>
    </edge>
    <edge id="E21" from="28" to="27" priority="-1">
        <lane id="E21_0" index="0" speed="13.89" length="185.60" shape="792.80,201.60 607.20,201.60"/>
    </edge>
    <edge id="E22" from="27" to="26" priority="-1">
        <lane id="E22_0" index="0" speed="13.89" length="192.00" shape="596.00,201.60 404.00,201.60"/>
    </edge>
    <edge id="E23" from="26" to="25" priority="-1">
        <lane id="E23_0" index="0" speed="13.89" length="185.60" shape="392.80,201.60 207.20,201.60"/>
    </edge>
    <edge id="E24" from="25" to="24" priority="-1">
        <lane id="E24_0" index="0" speed="13.89" length="192.00" shape="196.00,201.60 4.00,201.60"/>
    </edge>
    <edge id="E25" from="18" to="19" priority="-1">
        <lane id="E25_0" index="0" speed="13.89" length="192.00" shape="4.00,398.40 196.00,398.40"/>
    </edge>
    <edge id="E26" from="19" to="20" priority="-1">
        <lane id="E26_0" index="0" speed="13.89" length="185.60" shape="207.20,398.40 392.80,398.40"/>
    </edge>
    <edge id="E27" from="20" to="21" priority="-1">
        <lane id="E27_0" index="0" speed="13.89" length="192.00" shape="404.00,398.40 596.00,398.40"/>
    </edge>
    <edge id="E28" from="21" to="22" priority="-1">
        <lane id="E28_0" index="0" speed="13.89" length="185.60" shape="607.20,398.40 792.80,398.40"/>
    </edge>
    <edge id="E29" from="22" to="23" priority="-1">
        <lane id="E29_0" index="0" speed="13.89" length="192.00" shape="804.00,398.40 996.00,398.40"/>
    </edge>
    <edge id="E3" from="33" to="34" priority="-1">
        <lane id="E3_0" index="0" speed="13.89" length="185.60" shape="607.20,-1.60 792.80,-1.60"/>
    </edge>
    <edge id="E30" from="17" to="16" priority="-1">
        <lane id="E30_0" index="0" speed="13.89" length="192.00" shape="996.00,601.60 804.00,601.60"/>
    </edge>
    <edge id="E31" from="16" to="15" priority="-1">
        <lane id="E31_0" index="0" speed="13.89" length="185.60" shape="792.80,601.60 607.20,601.60"/>
    </edge>
    <edge id="E32" from="15" to="14" priority="-1">
        <lane id="E32_0" index="0" speed="13.89" length="192.00" shape="596.00,601.60 404.00,601.60"/>
    </edge>
    <edge id="E33" from="14" to="13" priority="-1">
        <lane id="E33_0" index="0" speed="13.89" length="185.60" shape="392.80,601.60 207.20,601.60"/>
    </edge>
    <edge id="E34" from="13" to="12" priority="-1">
        <lane id="E34_0" index="0" speed="13.89" length="192.00" shape="196.00,601.60 4.00,601.60"/>
    </edge>
    <edge id="E35" from="6" to="7" priority="-1">
        <lane id="E35_0" index="0" speed="13.89" length="192.00" shape="4.00,798.40 196.00,798.40"/>
    </edge>
    <edge id="E36" from="7" to="8" priority="-1">
        <lane id="E36_0" index="0" speed="13.89" length="185.60" shape="207.20,798.40 392.80,798.40"/>
    </edge>
    <edge id="E37" from="8" to="9" priority="-1">
        <lane id="E37_0" index="0" speed="13.89" length="192.00" shape="404.00,798.40 596.00,798.40"/>
    </edge>
    <edge id="E38" from="9" to="10" priority="-1">
        <lane id="E38_0" index="0" speed="13.89" length="185.60" shape="607.20,798.40 792.80,798.40"/>
    </edge>
    <edge id="E39" from="10" to="11" priority="-1">
        <lane id="E39_0" index="0" speed="13.89" length="192.00" shape="804.00,798.40 996.00,798.40"/>
    </edge>
    <edge id="E4" from="34" to="35" priority="-1">
        <lane id="E4_0" index="0" speed="13.89" length="196.00" shape="804.00,-1.60 1000.00,-1.60"/>
    </edge>
    <edge id="E40" from="4" to="10" priority="-1">
        <lane id="E40_0" index="0" speed="13.89" length="192.00" shape="798.40,996.00 798.40,804.00"/>
    </edge>
    <edge id="E41" from="10" to="16" priority="-1">
        <lane id="E41_0" index="0" speed="13.89" length="185.60" shape="798.40,792.80 798.40,607.20"/>
    </edge>
    <edge id="E42" from="16" to="22" priority="-1">
        <lane id="E42_0" index="0" speed="13.89" length="192.00" shape="798.40,596.00 798.40,404.00"/>
    </edge>
    <edge id="E43" from="22" to="28" priority="-1">
        <lane id="E43_0" index="0" speed="13.89" length="185.60" shape="798.40,392.80 798.40,207.20"/>
    </edge>
    <edge id="E44" from="28" to="34" priority="-1">
        <lane id="E44_0" index="0" speed="13.89" length="192.00" shape="798.40,196.00 798.40,4.00"/>
    </edge>
    <edge id="E45" from="33" to="27" priority="-1">
        <lane id="E45_0" index="0" speed="13.89" length="192.00" shape="601.60,4.00 601.60,196.00"/>
    </edge>
    <edge id="E46" from="27" to="21" priority="-1">
        <lane id="E46_0" index="0" speed="13.89" length="185.60" shape="601.60,207.20 601.60,392.80"/>
    </edge>
    <edge id="E47" from="21" to="15" priority="-1">